[General]
network = System
#cpu-time-limit = 60s
#debug-on-errors = true
sim-time-limit = 10s
#**.result-recording-modes="all"
